/*--------------------------------*- C++ -*----------------------------------*\
| =========                 |                                                 |
| \\      /  F ield         | OpenFOAM: The Open Source CFD Toolbox           |
|  \\    /   O peration     | Version:  3.0.1                                 |
|   \\  /    A nd           | Web:      www.OpenFOAM.org                      |
|    \\/     M anipulation  |                                                 |
\*---------------------------------------------------------------------------*/
FoamFile
{
    version     2.0;
    format      ascii;
    class       dictionary;
    location    "system";
    object      controlDict;
}
// * * * * * * * * * * * * * * * * * * * * * * * * * * * * * * * * * * * * * //

application     scalarTransportFoam;

startFrom       startTime;

startTime       0;

stopAt          endTime;

endTime         0.5;

deltaT          0.0001;

writeControl    timeStep;

writeInterval   100;

purgeWrite      0;

writeFormat     ascii;

writePrecision  6;

writeCompression off;

timeFormat      general;

timePrecision   6;

runTimeModifiable true;


functions
{
    sampleLine
    {

        start   (0.0 0.0 0.0);
        end     (6.28 0.0 0.0);
        fields  (U);


        interpolationScheme cellPoint;
        setFormat   raw;
        setConfig
        {
            type    uniform;   // midPoint, midPointAndFace
            axis    distance;  // x, y, z, xyz
            nPoints 100;
            axis    x;
        }


        type            sets;
        libs            ("libsampling.so");

        writeControl    writeTime;

        sets
        (
            line
            {
                $setConfig;
                start $start;
                end   $end;
            }
        );
    }
}
// ************************************************************************* //
