/*--------------------------------*- C++ -*----------------------------------*\
| =========                 |                                                 |
| \\      /  F ield         | OpenFOAM: The Open Source CFD Toolbox           |
|  \\    /   O peration     | Version:  3.0.1                                 |
|   \\  /    A nd           | Web:      www.OpenFOAM.org                      |
|    \\/     M anipulation  |                                                 |
\*---------------------------------------------------------------------------*/
FoamFile
{
    version     2.0;
    format      ascii;
    class       dictionary;
    object      blockMeshDict;
}
// * * * * * * * * * * * * * * * * * * * * * * * * * * * * * * * * * * * * * //

scale 1;

length 6.28; //2PI
cell_count 1000;

vertices
(
    (0 -1 -1)
    ($length -1 -1)
    ($length 1 -1)
    (0 1 -1)
    (0 -1 1)
    ($length -1 1)
    ($length 1 1)
    (0 1 1)
);

blocks
(
    hex (0 1 2 3 4 5 6 7) ($cell_count 1 1) simpleGrading (1 1 1)
);

edges
(
);

boundary
(
    left
    {
        type cyclic;
        neighbourPatch right;
        faces
        (
            (0 0)
        );
    }
    right
    {
        type cyclic;
        neighbourPatch left;
        faces
        (
            (0 1)
        );
    }
    
    other
    {
        type empty;
        faces
        (
            (0 2)
            (0 3)
            (0 4)
            (0 5)
        );
    }
);

mergePatchPairs
(
);

// ************************************************************************* //
