/*--------------------------------*- C++ -*----------------------------------*\
| =========                 |                                                 |
| \\      /  F ield         | OpenFOAM: The Open Source CFD Toolbox           |
|  \\    /   O peration     | Version:  v2312                                 |
|   \\  /    A nd           | Website:  www.openfoam.com                      |
|    \\/     M anipulation  |                                                 |
\*---------------------------------------------------------------------------*/
FoamFile
{
    version     2.0;
    format      ascii;
    class       dictionary;
    object      setExprFieldsDict;
}
// * * * * * * * * * * * * * * * * * * * * * * * * * * * * * * * * * * * * * //

expressions
(
    initial_conditions
    {
        field       U;
        dimensions  [0 1 -1 0 0 0 0];

        constants
        {
        }

        variables
        (
            "radius = 0.1"
        );

        expression
        #{
            vector(sin(pos().x()), 0.0, 0.0)
        #};
    }
);


// ************************************************************************* //
